Version 4
SHEET 1 944 680
WIRE 736 -64 736 -96
WIRE 864 -64 864 -96
WIRE 160 -16 160 -48
WIRE 352 -16 352 -48
WIRE 528 -16 528 -48
WIRE 112 0 96 0
WIRE 304 0 288 0
WIRE 736 48 736 16
WIRE 864 48 864 16
WIRE 480 64 448 64
WIRE -32 112 -80 112
WIRE 96 112 96 0
WIRE 96 112 -32 112
WIRE 160 112 160 80
WIRE 224 112 160 112
WIRE 288 112 288 0
WIRE 288 112 224 112
WIRE 352 112 352 80
WIRE 528 112 528 80
WIRE 528 112 352 112
WIRE 592 112 528 112
WIRE 160 144 160 112
WIRE 352 144 352 112
WIRE -32 160 -32 112
WIRE 96 224 96 112
WIRE 112 224 96 224
WIRE 288 224 288 112
WIRE 304 224 288 224
WIRE -32 272 -32 240
WIRE 160 272 160 240
WIRE 352 272 352 240
FLAG 160 272 0
FLAG 160 -48 Vcc
FLAG 352 272 0
FLAG 224 112 Vmid
FLAG -80 112 Vin
FLAG 592 112 Vout
FLAG 448 64 Vin
FLAG 528 -48 Vdd
FLAG 352 -48 Vdd
FLAG -32 272 0
FLAG 736 48 0
FLAG 864 48 0
FLAG 736 -96 Vcc
FLAG 864 -96 Vdd
SYMBOL nmos 112 144 R0
SYMATTR InstName M1
SYMATTR Value 2N7002
SYMBOL pmos 112 80 M180
SYMATTR InstName M2
SYMATTR Value BSS84
SYMBOL nmos 304 144 R0
SYMATTR InstName M3
SYMATTR Value 2N7002
SYMBOL pmos 304 80 M180
SYMATTR InstName M4
SYMATTR Value BSS84
SYMBOL nmos 480 -16 R0
SYMATTR InstName M5
SYMATTR Value 2N7002
SYMBOL voltage -32 144 R0
WINDOW 3 24 96 Invisible 2
WINDOW 123 0 0 Left 2
WINDOW 39 0 0 Left 2
SYMATTR InstName Vin
SYMATTR Value PULSE(0 3.3 0 1u 1u 1m 2m 100)
SYMBOL voltage 736 -80 R0
WINDOW 123 0 0 Left 2
WINDOW 39 0 0 Left 2
SYMATTR InstName Vcc
SYMATTR Value 3.3
SYMBOL voltage 864 -80 R0
WINDOW 123 0 0 Left 2
WINDOW 39 0 0 Left 2
SYMATTR InstName Vdd
SYMATTR Value 3.3
TEXT -138 296 Left 2 !.tran 10m
